546 
PROVA
N -31.8366 -4.4043 -12.1714
CA -30.7867 -5.2542 -12.0521
C -30.561 -5.9574 -13.3424
N -30.9553 -5.4163 -14.3864
CA -30.9712 -6.0441 -15.6584
C -29.6164 -6.0928 -16.3298
N -29.0253 -4.9663 -16.5506
CA -27.8288 -4.8791 -17.3581
C -26.5604 -4.8284 -16.5236
N -26.621 -5.2761 -15.2756
CA -25.4236 -5.3232 -14.4515
C -24.4083 -6.2478 -15.0955
N -23.3207 -5.6887 -15.5924
CA -22.2856 -6.5006 -16.1878
C -21.5252 -7.2248 -15.103
N -21.9132 -8.4458 -14.8541
CA -21.2301 -9.2846 -13.9113
C -20.9437 -10.6128 -14.5265
N -19.7123 -10.994 -14.5198
CA -19.3275 -12.2856 -14.9559
C -19.3493 -13.241 -13.8129
N -19.4043 -14.0514 -13.4758
CA -19.4038 -14.9255 -12.3333
C -18.1039 -15.5974 -12.2165
N -17.4295 -15.502 -11.2133
CA -16.1577 -16.1124 -11.0153
C -16.1319 -17.1854 -10.274
N -15.5967 -18.1639 -10.6277
CA -15.3545 -19.2025 -9.9595
C -14.0395 -19.8334 -10.0734
N -13.324 -19.7283 -9.2939
CA -12.0373 -20.2459 -9.3464
C -11.089 -19.4982 -9.1505
N -10.4111 -19.0683 -9.6201
CA -9.4407 -18.421 -9.4585
C -8.9528 -17.166 -9.5899
N -9.1649 -16.6167 -10.5424
CA -8.6407 -15.4393 -10.789
C -9.4509 -14.29 -10.2215
N -9.1325 -13.9054 -9.0021
CA -9.8555 -12.8524 -8.3264
C -9.5253 -11.485 -8.9126
N -8.3161 -11.322 -9.4491
CA -7.9489 -10.0768 -10.1194
C -8.8507 -9.8419 -11.3136
N -9.0823 -10.8975 -12.0794
CA -9.9202 -10.8147 -13.2588
C -11.3294 -10.4325 -12.8679
N -11.8964 -11.1366 -11.9279
CA -13.2348 -10.8323 -11.4655
C -13.3286 -9.4187 -10.9067
N -12.4145 -9.0707 -10.022
CA -12.4825 -7.7997 -9.3225
C -12.2927 -6.6315 -10.2638
N -11.32 -6.7362 -11.1478
CA -10.9978 -5.6413 -12.0395
C -12.0183 -5.5314 -13.1596
N -12.4478 -6.6737 -13.6841
CA -13.445 -6.6952 -14.7453
C -14.7851 -6.256 -14.2115
N -14.9835 -6.3277 -12.9377
CA -16.1344 -5.7037 -12.3396
C -15.8643 -4.2174 -12.157
N -14.7378 -3.8923 -11.4876
CA -14.388 -2.5216 -11.0762
C -14.606 -1.5175 -12.2031
N -14.0573 -1.7977 -13.3718
CA -14.1439 -0.8761 -14.5
C -15.5265 -0.8721 -15.1379
N -16.4706 -1.505 -14.4588
CA -17.8404 -1.6294 -14.9188
C -17.9017 -2.573 -16.0951
N -17.0032 -3.5348 -16.1202
CA -16.9566 -4.4454 -17.2455
C -15.5948 -5.0308 -17.5286
N -15.5617 -6.0812 -18.3399
CA -14.3399 -6.8198 -18.6147
C -13.3964 -6.0415 -19.5034
N -12.2052 -5.8027 -18.9985
CA -11.1822 -5.1157 -19.7595
C -9.8426 -5.8467 -19.707
N -9.6433 -6.697 -18.708
CA -8.3584 -7.3701 -18.5323
C -8.5107 -8.8774 -18.3737
N -7.6032 -9.6126 -18.9456
CA -7.5778 -11.0645 -18.8704
C -6.3969 -11.5333 -18.0101
N -6.3474 -12.8264 -17.6244
CA -5.3059 -13.3655 -16.7315
C -3.8831 -12.9943 -17.1366
N -3.5368 -13.2271 -18.3919
CA -2.2066 -12.9123 -18.8903
C -1.9154 -11.4267 -18.7482
N -2.9236 -10.6114 -18.9885
CA -2.7868 -9.1833 -18.8519
C -2.6171 -8.8116 -17.3977
N -3.3223 -9.5132 -16.5283
CA -3.253 -9.2767 -15.0952
C -1.8556 -9.5434 -14.5605
N -1.2203 -10.5795 -15.0665
CA 0.137 -10.8893 -14.6783
C 1.1161 -9.9344 -15.3519
N 0.7202 -9.3938 -16.4964
CA 1.5478 -8.4355 -17.2071
C 1.4931 -7.0816 -16.5205
N 0.2948 -6.6695 -16.1382
CA 0.1167 -5.4165 -15.4343
C 0.7009 -5.5126 -14.0349
N 0.5816 -6.6785 -13.4072
CA 1.2543 -6.9264 -12.1413
C 2.751 -6.6586 -12.2542
N 3.3275 -7.0215 -13.3873
CA 4.7517 -6.8322 -13.6232
C 5.104 -5.373 -13.8452
N 4.1261 -4.5739 -14.2385
CA 4.4028 -3.1915 -14.5508
C 4.7218 -2.4299 -13.2842
N 4.2226 -2.9146 -12.1547
CA 4.5801 -2.3428 -10.8659
C 6.0739 -2.4417 -10.6632
N 6.6223 -3.6045 -10.9619
CA 8.0391 -3.8591 -10.8028
C 8.8525 -2.8825 -11.6153
N 8.4878 -2.7012 -12.8584
CA 9.2313 -1.8213 -13.7322
C 8.8879 -0.3612 -13.4934
N 7.721 -0.1091 -12.9529
CA 7.2608 1.2362 -12.7437
C 7.9064 1.7848 -11.5151
N 7.9647 0.9602 -10.5107
CA 8.5573 1.3398 -9.2792
C 10.0378 1.2855 -9.4196
N 10.4501 0.4545 -10.3287
CA 11.8088 0.3907 -10.7336
C 12.2812 1.7464 -11.1787
N 11.5344 2.3414 -12.0766
CA 11.8509 3.6505 -12.5743
C 11.6499 4.667 -11.5138
N 10.6806 4.4307 -10.6863
CA 10.358 5.3124 -9.6224
C 11.5202 5.4937 -8.7224
N 12.1684 4.4229 -8.3889
CA 13.32 4.4663 -7.5685
C 14.4198 5.1556 -8.2615
N 14.5534 4.8846 -9.5139
CA 15.5759 5.465 -10.2879
C 15.4004 6.9278 -10.409
N 14.195 7.3453 -10.4294
CA 13.8854 8.7184 -10.4956
C 14.2028 9.3788 -9.2045
N 14.2037 8.6591 -8.1671
CA 14.5081 9.1802 -6.8895
C 15.7896 9.0658 -6.4585
N 16.4453 8.0672 -6.5048
CA 17.685 7.8765 -6.1189
C 18.0618 6.563 -5.6781
N 18.6324 5.8468 -6.4341
CA 19.0636 4.5704 -6.1214
C 20.5389 4.5085 -6.0432
N 21.0612 3.8095 -5.0833
CA 22.4571 3.6654 -4.9211
C 22.9702 2.633 -5.8031
N 22.6261 1.8506 -6.335
CA 23.0049 0.8194 -7.2246
C 22.4861 -0.4941 -6.7534
N 22.8343 -0.863 -5.5653
CA 22.4696 -2.1287 -5.0319
C 21.0028 -2.2597 -4.8228
N 20.4044 -1.215 -4.4035
CA 19.0011 -1.2005 -4.1628
C 18.2385 -1.5833 -5.3809
N 18.6509 -1.1042 -6.5092
CA 18.0145 -1.3595 -7.7642
C 18.1121 -2.7783 -8.0789
N 19.2254 -3.3366 -7.7876
CA 19.4772 -4.6734 -8.0708
C 18.816 -5.5664 -7.1001
N 18.7929 -5.2317 -5.8838
CA 18.175 -5.9817 -4.8676
C 16.734 -6.0268 -5.104
N 16.15 -4.973 -5.5612
CA 14.7755 -4.8944 -5.8461
C 14.3891 -5.7746 -6.9802
N 15.0713 -5.6599 -8.0708
CA 14.8003 -6.4451 -9.2237
C 15.159 -7.844 -8.9949
N 15.9 -8.1437 -7.9666
CA 16.237 -9.477 -7.6229
C 15.1017 -10.1846 -7.071
N 14.0544 -9.502 -6.8144
CA 12.9099 -10.0378 -6.3081
C 11.7859 -9.9151 -7.1802
N 11.2474 -10.6326 -7.4577
CA 10.1508 -10.5631 -8.2358
C 9.0571 -10.2259 -7.8644
N 8.9108 -9.3117 -7.7028
CA 7.9289 -8.9156 -7.3396
C 6.8376 -8.3661 -8.0691
N 6.2636 -8.0349 -8.2606
CA 5.1901 -7.5697 -8.9612
C 4.55 -8.6321 -9.737
N 4.7339 -9.5595 -9.5187
CA 4.2309 -10.663 -10.2144
C 3.2299 -11.3595 -9.4103
N 2.3655 -12.0724 -10.0393
CA 1.331 -12.7857 -9.3894
C 1.7063 -14.1839 -9.2068
N 1.2479 -14.7749 -8.1913
CA 1.4762 -16.1309 -7.9385
C 0.3753 -16.9839 -8.2716
N 0.5722 -17.86 -8.3822
CA -0.406 -18.6459 -8.8213
C -1.386 -19.0633 -8.2398
N -1.8743 -18.6801 -7.6052
CA -2.8568 -18.9772 -7.0702
C -4.1261 -18.3219 -7.0505
N -4.0823 -17.5394 -7.3809
CA -5.2212 -16.8846 -7.4289
C -5.1924 -15.6098 -6.7241
N -4.363 -15.4191 -5.8769
CA -4.2559 -14.2361 -5.1459
C -3.4458 -13.1537 -5.7612
N -4.0379 -12.0774 -6.0121
CA -3.3743 -10.9218 -6.5212
C -3.3984 -9.8196 -5.4785
N -2.3029 -9.1061 -5.3444
CA -2.2206 -8.0177 -4.3915
C -2.8345 -6.7543 -4.9773
N -3.2668 -5.8377 -4.1248
CA -4.0461 -4.67 -4.5489
C -3.3978 -3.9188 -5.7104
N -2.0735 -3.9233 -5.7419
CA -1.2998 -3.2499 -6.7896
C -1.8234 -3.5421 -8.1988
N -2.4503 -4.7033 -8.4065
CA -2.9633 -5.0559 -9.7303
C -4.1308 -4.1621 -10.1326
N -4.9637 -3.7952 -9.1763
CA -6.0942 -2.9227 -9.4541
C -5.6183 -1.4833 -9.4335
N -4.6474 -1.2162 -8.5772
CA -4.0708 0.1091 -8.4643
C -3.4414 0.5344 -9.7864
N -2.6294 -0.3386 -10.3665
CA -1.9277 -0.0098 -11.5945
C -2.8515 -0.0891 -12.7909
N -3.7567 -1.0609 -12.7925
CA -4.5883 -1.2944 -13.9532
C -5.5218 -0.1215 -14.1805
N -5.8747 0.548 -13.1012
CA -6.6301 1.7736 -13.2014
C -5.7134 2.9474 -13.4939
N -4.4997 2.8852 -12.975
CA -3.5383 3.9629 -13.1367
C -3.1478 4.1015 -14.6011
N -3.1082 2.9791 -15.2955
CA -2.78 2.969 -16.7092
C -3.9555 3.472 -17.5438
N -5.1231 3.5712 -16.9168
CA -6.3136 4.081 -17.5769
C -6.545 5.543 -17.2317
N -5.8915 6.0065 -16.186
CA -6.0352 7.3861 -15.7724
C -6.8073 7.5252 -14.4763
N -6.9711 6.4248 -13.7761
CA -7.6603 6.4082 -12.4947
C -6.6526 6.4867 -11.3581
N -7.1176 6.8931 -10.1986
CA -6.2971 6.9106 -9.0029
C -6.9018 5.9724 -7.9753
N -6.123 5.3307 -7.1706
CA -6.6436 4.4031 -6.1831
C -6.2549 4.8283 -4.7843
N -7.2339 5.0577 -3.9563
CA -7.0214 5.5354 -2.6095
C -7.3062 4.4661 -1.5831
N -6.5543 4.437 -0.5207
CA -6.85 3.5534 0.5776
C -7.8591 4.2137 1.496
N -8.9733 3.6266 1.6936
CA -10.0659 4.1743 2.4847
C -9.8532 3.9114 3.9657
N -9.0069 3.0162 4.2944
CA -8.7032 2.7008 5.6783
C -7.4086 3.3444 6.1005
N -6.9848 4.3348 5.4853
CA -5.8013 5.0798 5.8278
C -6.1774 6.2088 6.7579
N -5.4072 6.471 7.7877
CA -5.7334 7.4309 8.8407
C -6.3448 8.679 8.3723
N -5.7917 9.2607 7.3681
CA -6.2926 10.4621 6.8362
C -7.5272 10.2142 6.0587
N -7.4739 9.3657 5.0889
CA -8.541 9.0099 4.2282
C -9.6706 8.3964 4.9732
N -9.4372 7.858 6.0783
CA -10.4462 7.2441 6.8626
C -11.3118 8.2656 7.5852
N -10.7544 9.3855 7.9329
CA -11.4473 10.3553 8.757
C -11.8533 11.6044 8.02
N -11.6138 11.6662 6.7378
CA -11.9327 12.8312 5.9805
C -13.3406 12.7755 5.4804
N -13.9541 11.6516 5.6715
CA -15.3188 11.424 5.299
C -15.5955 11.5241 3.831
N -15.1173 10.5912 3.0989
CA -15.4559 10.487 1.7114
C -16.7573 9.7377 1.5816
N -17.7376 10.3709 0.9777
CA -19.0324 9.7575 0.7888
C -18.9231 8.6302 -0.2194
N -19.1176 7.3881 0.2369
CA -18.9425 6.2029 -0.5974
C -19.9376 6.156 -1.7455
N -21.1718 6.5693 -1.4798
CA -22.226 6.5301 -2.4842
C -22.0246 7.6226 -3.5232
N -21.1743 8.5759 -3.1862
CA -20.872 9.7071 -4.0505
C -19.8381 9.3249 -5.1024
N -19.0811 8.2751 -4.8303
CA -18.016 7.8497 -5.7226
C -18.5665 7.0602 -6.9017
N -17.704 6.3639 -7.6121
CA -18.1263 5.5645 -8.7492
C -17.8114 4.0987 -8.5429
N -16.6586 3.8041 -7.9621
CA -16.2518 2.432 -7.7193
C -15.1233 2.361 -6.7059
N -15.2003 1.3879 -5.8204
CA -14.1317 1.1044 -4.8884
C -14.1649 -0.3759 -4.5376
N -13.0216 -1.002 -4.4683
CA -12.9589 -2.4231 -4.1614
C -12.1923 -2.6255 -2.8684
N -12.5037 -3.6724 -2.1488
CA -11.866 -3.92 -0.879
C -11.2639 -5.3153 -0.8609
N -10.1895 -5.4873 -0.131
CA -9.487 -6.7553 -0.0956
C -9.2463 -7.2117 1.3309
N -9.6579 -8.42 1.6203
CA -9.369 -9.0448 2.8935
C -8.3124 -10.1192 2.7077
N -7.074 -9.7708 3.0159
CA -5.9418 -10.6864 2.9252
C -5.6372 -11.0704 1.4849
N -6.381 -12.0244 0.9602
CA -6.1801 -12.4974 -0.3955
C -7.4948 -12.5003 -1.1482
N -8.5421 -12.1069 -0.4626
CA -9.8789 -12.2312 -0.9881
C -10.4599 -10.8682 -1.3264
N -10.9019 -10.7165 -2.5532
CA -11.3806 -9.4341 -3.0422
C -12.8826 -9.2983 -2.9521
N -13.3298 -8.0595 -2.9249
CA -14.7311 -7.6982 -2.9497
C -14.8783 -6.4605 -3.821
N -15.774 -6.4721 -4.7603
CA -15.9188 -5.3729 -5.6977
C -17.1386 -4.5164 -5.3895
N -16.9688 -3.2371 -5.2812
CA -18.0838 -2.328 -5.0758
C -18.1634 -1.3317 -6.2166
N -19.2059 -1.428 -7.0014
CA -19.3679 -0.5794 -8.1644
C -20.7063 0.1356 -8.1187
N -20.7283 1.3553 -8.6227
CA -21.9379 2.1569 -8.638
C -22.727 1.9037 -9.9027
N -23.8791 1.2992 -9.7799
CA -24.7436 1.1006 -10.9133
C -26.0541 1.8269 -10.6724
N -26.3576 2.8092 -11.4948
CA -27.5893 3.5417 -11.3505
C -27.6303 4.39 -10.1078
N -28.5946 4.1352 -9.2687
CA -28.8098 4.9152 -8.0689
C -28.3722 4.1568 -6.8311
N -27.7723 3.0048 -7.0315
CA -27.3791 2.1617 -5.9262
C -26.0448 1.5069 -6.1886
N -25.5207 0.8647 -5.1797
CA -24.236 0.2138 -5.2741
C -24.3995 -1.2825 -5.1332
N -23.489 -2.0299 -5.7201
CA -23.5651 -3.4756 -5.6765
C -22.2438 -4.0801 -5.2716
N -22.2964 -4.9783 -4.3064
CA -21.1394 -5.7427 -3.9088
C -20.9721 -6.9325 -4.8211
N -19.8283 -7.0745 -5.3921
CA -19.5034 -8.1841 -6.2507
C -18.3682 -8.9855 -5.6429
N -18.6981 -9.8187 -4.7045
CA -17.7457 -10.712 -4.065
C -17.1769 -11.6949 -5.0773
N -16.0246 -12.2421 -4.8249
CA -15.3972 -13.1476 -5.7589
C -16.2755 -14.3422 -6.0567
N -16.8406 -14.9386 -5.0358
CA -17.5854 -16.1651 -5.1992
C -19.0767 -15.9293 -5.1425
N -19.4973 -14.6999 -5.0875
CA -20.8963 -14.3825 -4.9676
C -21.6553 -14.7001 -6.2281
N -22.837 -15.2414 -6.0612
CA -23.692 -15.6168 -7.1609
C -23.9407 -14.4732 -8.108
N -23.8132 -13.3728 -7.8716
CA -24.0027 -12.2531 -8.7335
C -23.9345 -10.9495 -8.0057
N -24.6887 -9.9671 -8.2795
CA -24.6734 -8.6724 -7.6101
C -25.4437 -8.6411 -6.2903
N -24.8412 -8.0511 -5.2738
CA -25.4854 -7.8508 -3.9848
C -25.8735 -6.3929 -3.814
N -27.1672 -6.1345 -3.7967
CA -27.698 -4.7892 -3.693
C -27.3125 -4.1298 -2.384
N -26.7352 -3.006 -2.4468
CA -26.3623 -2.1898 -1.3194
C -26.97 -0.7993 -1.4688
N -27.8988 -0.471 -0.5904
CA -28.5323 0.831 -0.5918
C -27.5823 1.8885 -0.0592
N -27.9074 3.1287 -0.2353
CA -27.0785 4.2541 0.1629
C -26.5531 4.1137 1.5766
N -27.4369 3.8313 2.4992
CA -27.0637 3.7072 3.8775
C -26.3184 2.4122 4.134
N -26.737 1.369 3.4525
CA -26.1009 0.0827 3.5927
C -24.6597 0.1503 3.1132
N -24.361 1.0889 2.2271
CA -22.9972 1.25 1.76
C -22.1218 1.7412 2.9006
N -22.511 2.8508 3.5174
CA -21.8742 3.3249 4.7464
C -21.7581 2.2117 5.7872
N -22.6271 1.2213 5.6877
CA -22.6003 0.1017 6.6055
C -21.5144 -0.8638 6.1669
N -21.539 -1.1896 4.8811
CA -20.5538 -2.0616 4.266
C -19.1396 -1.5823 4.5804
N -18.8422 -0.325 4.2475
CA -17.5031 0.2241 4.461
C -17.1097 0.1672 5.9294
N -18.0295 0.5418 6.8105
CA -17.7395 0.5324 8.2328
C -17.4731 -0.8828 8.7231
N -18.2109 -1.8454 8.1846
CA -18.0225 -3.2351 8.5586
C -16.6613 -3.7169 8.1172
N -16.2301 -3.248 6.959
CA -14.9529 -3.6422 6.394
C -13.8233 -3.3345 7.3505
N -13.7798 -2.0966 7.7894
CA -12.7024 -1.6193 8.6306
C -12.7597 -2.2521 10.0149
N -13.9553 -2.6269 10.4425
CA -14.1286 -3.2847 11.7289
C -13.8477 -4.7793 11.6171
N -13.9858 -5.3183 10.4289
CA -13.8097 -6.7395 10.1956
C -12.3551 -7.0446 9.8609
N -11.6923 -6.1169 9.1976
CA -10.2894 -6.2747 8.8912
C -9.9929 -6.1789 7.4157
N -10.8153 -5.4767 6.6823
CA -10.6306 -5.3134 5.2572
C -9.831 -4.109 4.9105
N -9.1906 -4.1109 3.8261
CA -8.5128 -2.971 3.2769
C -9.3099 -2.4502 2.0936
N -9.9076 -1.2854 2.2521
CA -10.7732 -0.7262 1.2211
C -9.9931 0.2224 0.3193
N -10.3312 0.2793 -0.9509
CA -9.5986 1.0642 -1.9304
C -10.5699 1.7787 -2.8636
N -10.5817 3.0916 -2.8041
CA -11.5247 3.9013 -3.5595
C -10.927 4.3578 -4.8843
N -11.4096 3.7763 -5.9743
CA -11.0087 4.2028 -7.3065
C -11.5548 5.5942 -7.6086
N -10.6497 6.5107 -7.8292
CA -10.9684 7.9073 -8.0685
C -10.7295 8.2587 -9.5244
N -11.634 8.9906 -10.1166
CA -11.5002 9.3763 -11.4986
C -12.7481 9.0782 -12.2636
N -12.8359 9.0014 -13.3753
CA -14.019 8.673 -14.1339
C -13.9157 7.3438 -14.819
N -14.8286 6.4963 -14.5996
CA -14.8531 5.1681 -15.1464
C -15.6639 5.091 -16.4146
N -15.4438 4.061 -17.2322
CA -16.1765 3.8752 -18.4751
C -17.6114 3.438 -18.242
N -18.4856 4.3536 -18.2649
CA -19.8955 4.1187 -18.0196
C -20.5004 3.1845 -18.962
N -21.2711 2.2696 -18.4858
CA -21.9093 1.3121 -19.274
C -23.4152 1.3304 -19.12
N -24.0998 0.4555 -19.8217
CA -25.5522 0.4041 -19.8122
C -26.1031 0.1139 -18.4264
N -25.3254 -0.5624 -17.6089
CA -25.7582 -0.9661 -16.2818
C -26.1671 0.215 -15.4349
N -25.4862 1.3204 -15.603
CA -25.7668 2.5146 -14.8447
C -27.1229 3.0671 -15.1883
N -27.4982 2.9238 -16.4338
CA -28.7395 3.4622 -16.9156
C -29.8859 2.5389 -16.602
N -29.6339 1.2664 -16.6221
CA -30.6829 0.2918 -16.4541
C -30.6912 -0.2679 -15.0448
N -30.1883 0.4598 -14.1124
CA -30.27 0.0931 -12.7194
C -31.3972 0.8329 -12.0546
N -32.0589 1.6847 -12.776
CA -33.1601 2.4473 -12.2301
C -34.3122 1.536 -11.8775
N -34.4003 0.4241 -12.552
CA -35.3444 -0.6168 -12.2185
C -34.6866 -1.6538 -11.3549
N -34.9116 -1.5797 -10.1245
CA -34.3566 -2.4954 -9.1796
C -35.3712 -3.4226 -8.6766
N -35.0509 -4.6013 -8.4548
CA -35.889 -5.6111 -7.9431
C -36.6935 -5.7995 -8.5405
